Circuit: * Z:\home\dmytro\Documents\projects\PicoLasDriver\HW\simulation\Draft1.asc

Instance "m:u1:52": Length shorter than recommended for a level 1 MOSFET.
Instance "m:u1:46": Length shorter than recommended for a level 1 MOSFET.
Instance "m:u1:45": Length shorter than recommended for a level 1 MOSFET.
Instance "m:u1:51": Length shorter than recommended for a level 1 MOSFET.
Instance "m:u1:50": Length shorter than recommended for a level 1 MOSFET.
Instance "m:u1:47": Length shorter than recommended for a level 1 MOSFET.
Instance "m:u1:44": Length shorter than recommended for a level 1 MOSFET.
Instance "m:u1:43": Length shorter than recommended for a level 1 MOSFET.
Instance "m:u1:42": Length shorter than recommended for a level 1 MOSFET.
Instance "m:u1:41": Length shorter than recommended for a level 1 MOSFET.
Instance "m:u1:23": Length shorter than recommended for a level 1 MOSFET.
Instance "m:u1:19": Length shorter than recommended for a level 1 MOSFET.
Instance "m:u1:5": Length shorter than recommended for a level 1 MOSFET.
Instance "m:u1:4": Length shorter than recommended for a level 1 MOSFET.
Instance "m:u1:3": Length shorter than recommended for a level 1 MOSFET.
Instance "m:u1:2": Length shorter than recommended for a level 1 MOSFET.
Instance "m:u1:8": Length shorter than recommended for a level 1 MOSFET.
Instance "m:u1:1": Length shorter than recommended for a level 1 MOSFET.
Direct Newton iteration for .op point succeeded.

Date: Mon Jan 23 13:41:53 2023
Total elapsed time: 0.270 seconds.

tnom = 27
temp = 27
method = modified trap
totiter = 17532
traniter = 17500
tranpoints = 6335
accept = 4931
rejected = 1404
matrix size = 134
fillins = 105
solver = Normal
Thread vector: 6.9/6.1[2] 3.5/2.9[2] 0.8/1.3[1] 0.4/0.7[1]  2592/500
Matrix Compiler1: 10.47 KB object code size  1.9/1.0/[0.6]
Matrix Compiler2: 12.91 KB object code size  0.9/1.3/[0.6]

