Circuit: * Z:\home\dmytro\Documents\projects\PicoLasDriver\HW\simulation\Draft1.asc

Instance "m:u2:52": Length shorter than recommended for a level 1 MOSFET.
Instance "m:u2:46": Length shorter than recommended for a level 1 MOSFET.
Instance "m:u2:45": Length shorter than recommended for a level 1 MOSFET.
Instance "m:u2:51": Length shorter than recommended for a level 1 MOSFET.
Instance "m:u2:50": Length shorter than recommended for a level 1 MOSFET.
Instance "m:u2:47": Length shorter than recommended for a level 1 MOSFET.
Instance "m:u2:44": Length shorter than recommended for a level 1 MOSFET.
Instance "m:u2:43": Length shorter than recommended for a level 1 MOSFET.
Instance "m:u2:42": Length shorter than recommended for a level 1 MOSFET.
Instance "m:u2:41": Length shorter than recommended for a level 1 MOSFET.
Instance "m:u2:23": Length shorter than recommended for a level 1 MOSFET.
Instance "m:u2:19": Length shorter than recommended for a level 1 MOSFET.
Instance "m:u2:5": Length shorter than recommended for a level 1 MOSFET.
Instance "m:u2:4": Length shorter than recommended for a level 1 MOSFET.
Instance "m:u2:3": Length shorter than recommended for a level 1 MOSFET.
Instance "m:u2:2": Length shorter than recommended for a level 1 MOSFET.
Instance "m:u2:8": Length shorter than recommended for a level 1 MOSFET.
Instance "m:u2:1": Length shorter than recommended for a level 1 MOSFET.
Direct Newton iteration for .op point succeeded.

Date: Fri Jan 13 12:50:49 2023
Total elapsed time: 0.154 seconds.

tnom = 27
temp = 27
method = modified trap
totiter = 1492
traniter = 1460
tranpoints = 530
accept = 435
rejected = 95
matrix size = 134
fillins = 105
solver = Normal
Thread vector: 16.7/15.0[2] 10.2/8.9[2] 4.5/5.7[1] 2.6/4.8[1]  2592/500
Matrix Compiler1:     614 opcodes  6.1/[4.9]/10.6
Matrix Compiler2: 12.91 KB object code size  4.9/5.1/[3.3]

